tests/data/power_flow/pandapower/components/pp-asym-source/pgm_asym_output.json
{
  "line": [
    {
      "id": 3,
      "energized": 1,
      "loading": 0.0019045192479314906,
      "p_from": [
        0.2267066937139504,
        0.2267067117431067,
        0.22670670943997218
      ],
      "q_from": [
        -11545.534352706003,
        -11545.53435270755,
        -11545.53435270994
      ],
      "i_from": [
        1.904519247930841,
        1.904519247931096,
        1.9045192479314905
      ],
      "s_from": [
        11545.534354931797,
        11545.534354933343,
        11545.534354935733
      ],
      "p_to": [
        1.894802947662211e-08,
        1.230706877359755e-08,
        4.736778169091061e-09
      ],
      "q_to": [
        -9.474944895018303e-09,
        -7.1061339008421656e-09,
        -8.2050845784146e-09
      ],
      "i_to": [
        3.4945018188793978e-12,
        2.3441830843532975e-12,
        1.5627887229021982e-12
      ],
      "s_to": [
        2.1184956969759786e-08,
        1.4211301165437251e-08,
        9.474200776958167e-09
      ]
    },
    {
      "id": 6,
      "energized": 1,
      "loading": 0.0019045192479308411,
      "p_from": [
        1.8947657413939213e-08,
        2.8322235724746617e-09,
        1.4210334507273184e-08
      ],
      "q_from": [
        -1.8949145664670807e-08,
        -2.351555893230557e-08,
        -2.46152537352438e-08
      ],
      "i_from": [
        4.420234014104035e-12,
        3.906971807255495e-12,
        4.688366168706595e-12
      ],
      "s_from": [
        2.6797086462839915e-08,
        2.3685501942395425e-08,
        2.8422602330874503e-08
      ],
      "p_to": [
        0.22670669371371405,
        0.22670672531905262,
        0.226706705886102
      ],
      "q_to": [
        -11545.534352706003,
        -11545.53435269351,
        -11545.534352703788
      ],
      "i_to": [
        1.904519247930841,
        1.90451924792878,
        1.9045192479304751
      ],
      "s_to": [
        11545.534354931797,
        11545.534354919302,
        11545.53435492958
      ]
    }
  ],
  "node": [
    {
      "id": 1,
      "energized": 1,
      "u_pu": [
        1.0000000000000004,
        1.0000000000000004,
        1.0000000000000002
      ],
      "u": [
        6062.1778264910745,
        6062.1778264910745,
        6062.177826491073
      ],
      "u_angle": [
        -1.5184016656962496e-17,
        -2.0943951023931957,
        2.0943951023931957
      ]
    },
    {
      "id": 2,
      "energized": 1,
      "u_pu": [
        1.0000314161423924,
        1.0000314161423924,
        1.0000314161423922
      ],
      "u": [
        6062.368276732877,
        6062.368276732877,
        6062.3682767328755
      ],
      "u_angle": [
        -3.9271141888730424e-05,
        -2.0944343735350843,
        2.0943558312513066
      ]
    },
    {
      "id": 5,
      "energized": 1,
      "u_pu": [
        1.0000000000000004,
        1.0000000000000007,
        1.0000000000000004
      ],
      "u": [
        6062.1778264910745,
        6062.177826491075,
        6062.1778264910745
      ],
      "u_angle": [
        -3.5655068414342276e-17,
        -2.0943951023931957,
        2.0943951023931957
      ]
    }
  ],
  "source": [
    {
      "id": 4,
      "energized": 1,
      "p": [
        -969.3288895577477,
        -2630.54069027215,
        -2179.4460602906183
      ],
      "q": [
        -14779.871523294178,
        -16339.837582176157,
        -13164.024408139088
      ],
      "i": [
        2.443284288699775,
        2.73007954599953,
        2.201060497320609
      ],
      "s": [
        14811.623838769787,
        16550.22768831516,
        13343.22014162241
      ],
      "pf": [
        -0.06544379604216695,
        -0.15894287014125927,
        -0.1633373381506406
      ]
    },
    {
      "id": 7,
      "energized": 1,
      "p": [
        -290.34696218086617,
        -1785.719139136182,
        -657.1606267978246
      ],
      "q": [
        -14847.769716031866,
        -21504.84292585622,
        -16537.175588523587
      ],
      "i": [
        2.4497150571425164,
        3.559588228534938,
        2.7300795459995295
      ],
      "s": [
        14850.608300630674,
        21578.85683046314,
        16550.22768831516
      ],
      "pf": [
        -0.019551183110023563,
        -0.08275318535944222,
        -0.039707044469351624
      ]
    }
  ]
}